! Subset of available target linecodes, which are closest to the original ones in terms of positive sequence impedance
! -------------------------------------------------------------------------------------------------------------------------------------------------------------------------------------------------------------------------------------------------------------------------------------------------------------------------------------------

! Calculated with T = 55, alpha = .00429 rho = 10 , mu = 1, A_p_1 = [50, 50, 50, 50] mm², x_1 = [0, 500, 1000, 1500] mm, y_1 = [0, 0, 0, 0] mm
New LineCode.LC3 nphases=4 Units=km
~ Rmatrix=(0.279378 0.049348 0.049348 0.049348 | 0.049348 0.279378 0.049348 0.049348 | 0.049348 0.049348 0.279378 0.049348 | 0.049348 0.049348 0.049348 0.279378)
~ Xmatrix=(0.792387 0.473141 0.429589 0.404113 | 0.473141 0.792387 0.473141 0.429589 | 0.429589 0.473141 0.792387 0.473141 | 0.404113 0.429589 0.473141 0.792387)
~ Cmatrix=(0.0 0.0 0.0 0.0 | 0.0 0.0 0.0 0.0 | 0.0 0.0 0.0 0.0 | 0.0 0.0 0.0 0.0)

! Calculated with T = 55, alpha = .00429 rho = 10 , mu = 1, A_p_1 = [30, 30] mm², x_1 = [0, 200] mm, y_1 = [0, 0] mm
New LineCode.LC6 nphases=2 Units=km
~ Rmatrix=(0.432731 0.049348 | 0.049348 0.432731)
~ Xmatrix=(0.808436 0.530713 | 0.530713 0.808436)
~ Cmatrix=(0.0 0.0 | 0.0 0.0)
! -------------------------------------------------------------------------------------------------------------------------------------------------------------------------------------------------------------------------------------------------------------------------------------------------------------------------------------------